BEGIN BULK
GRID,1,0,0.0
GRID,2,0,1.0
GRID,3,0,2.0
GRID,4,0,3.0
GRID,5,0,4.0
GRID,6,0,5.0
CTETRA,1,1,1,4,5,6
PSOLID,1,1
MAT1,1,1.0,1.0,0.3,1.0
MPC,1,2,1,1.,1,1,-1.,,,1,6,.5
MPC,1,3,1,1.,1,1,-1.,,,1,6,-.5
MPC,1,3,6,1.,1,6,-1.
MPC,1,2,6,1.,1,6,-1.
MPC,1,2,2,1.,1,2,-1.
MPC,1,3,2,1.,1,2,-1
ENDDATA
